data/irish_network/psse/SummerPeak2016.raw
0,   100.00          / PSS/E-30.3    MON, NOV 18 2013  18:07
AITYTFS Summer Peak 2016

    10,'F_M         ',  38.0000,1,     0.000,     0.000,   2,   1,1.07037, -10.2858,   2
    11,'FMN LOOP    ',  38.0000,1,     0.000,     0.000,   2,   1,1.05495,  -9.3696,   2
    12,'BEDFORD     ',  38.0000,1,     0.000,     0.000,   1,   1,1.05514,  -7.0662,   2
    13,'M_R         ',  38.0000,1,     0.000,     0.000,   1,   1,1.07029,  -7.2996,   2
    14,'F_I         ',  38.0000,1,     0.000,     0.000,   2,   1,1.04670, -10.9570,   2
    15,'I_M         ',  38.0000,1,     0.000,     0.000,   2,   1,1.06217, -10.5935,   2
  1021,'ARDNACRU    ', 110.0000,1,     0.000,     0.000,   4,   1,1.05386,  -6.3964,   1
  1041,'AGHADA      ', 110.0000,1,     0.000,     0.000,   3,   1,1.06508,  -5.9939,   1
  1042,'AGHADA      ', 220.0000,1,     0.000,     0.000,   3,   1,1.07500,  -3.9022,   1
  1052,'AGHADA_B    ', 220.0000,1,     0.000,     0.000,   3,   1,1.07786,  -3.2498,   1
  1061,'ARIGNA      ', 110.0000,1,     0.000,     0.000,   9,   1,1.05101,  -8.1629,   2
  1062,'AGH_AT14    ', 220.0000,1,     0.000,     0.000,   3,   1,1.07500,  -3.9022,   1
  1071,'AGANNYGA    ', 110.0000,1,     0.000,     0.000,   4,   1,1.06247,  -4.6642,   1
  1072,'AGHT2102    ', 220.0000,1,     0.000,     0.000,   3,   1,1.07493,  -3.9119,   1
  1081,'AHANE       ', 110.0000,1,     0.000,     0.000,   7,   1,1.05628,  -6.1808,   2
  1091,'ADAMSTOW    ', 110.0000,1,     0.000,     0.000,   1,   1,1.04582, -10.0027,   2
  1101,'ANNER       ', 110.0000,1,     0.000,     0.000,   5,   1,1.05492,  -8.9257,   5
  1121,'ARKLOW      ', 110.0000,1,     0.000,     0.000,   6,   1,1.06984,  -6.1009,   1
  1122,'ARKLOW      ', 220.0000,1,     0.000,     0.000,   6,   1,1.06882,  -5.1449,   1
  1131,'ATHEA       ', 110.0000,1,     0.000,     0.000,   7,   1,1.04982,   1.1668,   4
  1141,'ATHLONE     ', 110.0000,1,     0.000,     0.000,   9,   1,1.05583,  -7.1484,   1
  1151,'ATHEA-2     ', 110.0000,1,     0.000,     0.000,   7,   1,1.04982,   1.1668,   1
  1161,'AUGHINIS    ', 110.0000,1,     0.000,     0.000,   7,   1,1.05000,  -1.7528,   1
  1181,'ARVA        ', 110.0000,1,     0.000,     0.000,  10,   1,1.04565, -10.6544,   1
  1201,'ARTANE      ', 110.0000,1,     0.000,     0.000,   1,   1,1.05802,  -7.2436,   2
  1211,'BALLYVOU    ', 110.0000,1,     0.000,     0.000,   3,   1,1.05094,  -0.3317,   1
  1212,'BALLYVOU    ', 220.0000,1,     0.000,     0.000,   3,   1,1.06190,  -1.1910,   1
  1221,'ATHY        ', 110.0000,1,     0.000,     0.000,   8,   1,1.05784,  -8.2883,   1
  1231,'BALLYWAT    ', 110.0000,1,     0.000,     0.000,   6,   1,1.06837,  -5.6847,   4
  1251,'BOOLTIAG    ', 110.0000,1,     0.000,     0.000,   4,   1,1.05933,  -4.2433,   2
  1271,'BALTRASN    ', 110.0000,1,     0.000,     0.000,  10,   1,1.04951,  -8.8282,   1
  1281,'BALLYLIC    ', 110.0000,1,     0.000,     0.000,   3,   1,1.05526,  -5.5345,   2
  1301,'BALLYBEG    ', 110.0000,1,     0.000,     0.000,   6,   1,1.06348,  -6.9423,   1
  1311,'CORDAL      ', 110.0000,1,     0.000,     0.000,   3,   1,1.05428,   0.8990,   1
  1321,'BLAKE       ', 110.0000,1,     0.000,     0.000,   8,   1,1.05578,  -8.3093,   2
  1341,'BINBANE     ', 110.0000,1,     0.000,     0.000,   9,   1,1.03874, -11.1807,   2
  1351,'BARODA      ', 110.0000,1,     0.000,     0.000,   8,   1,1.05537,  -8.7704,   1
  1361,'BALLYDIN    ', 110.0000,1,     0.000,     0.000,   5,   1,1.05368,  -8.5098,   1
  1381,'BARNAHEL    ', 110.0000,1,     0.000,     0.000,   3,   1,1.06027,  -6.3008,   1
  1391,'BARNAHEL    ', 110.0000,1,     0.000,     0.000,   3,   1,1.05971,  -6.3849,   1
  1401,'BELLACOR    ', 110.0000,1,     0.000,     0.000,   9,   1,1.04335,  -9.2695,   1
  1421,'BLACKROC    ', 110.0000,1,     0.000,     0.000,   1,   1,1.05802,  -7.7313,   2
  1441,'BANDON      ', 110.0000,1,     0.000,     0.000,   3,   1,1.04828,  -7.2209,   1
  1451,'CLOGHRAN    ', 110.0000,1,     0.000,     0.000,   1,   1,1.05586,  -8.0342,   1
  1461,'BARRYMOR    ', 110.0000,1,     0.000,     0.000,   5,   1,1.05807,  -7.4937,   2
  1481,'BUTLERST    ', 110.0000,1,     0.000,     0.000,   5,   1,1.06008,  -7.3758,   1
  1492,'BALLAKEL    ', 220.0000,1,     0.000,     0.000,  10,   1,1.04538,  -7.2545,   1
  1501,'BRINNY      ', 110.0000,1,     0.000,     0.000,   3,   1,1.04808,  -7.2333,   5
  1511,'KNOCKNAG    ', 110.0000,1,     0.000,     0.000,   7,   1,1.05000,   1.4581,   1
  1541,'BANOGE      ', 110.0000,1,     0.000,     0.000,   6,   1,1.06516,  -6.2661,   1
  1551,'BOGGERAG    ', 110.0000,1,     0.000,     0.000,   3,   1,1.05000,   0.3805,   1
  1571,'ARDNAGAP    ', 110.0000,1,     0.000,     0.000,   9,   1,1.02075, -12.2396,   2
  1581,'CABRA       ', 110.0000,1,     0.000,     0.000,   1,   1,1.05746,  -7.2787,   2
  1601,'CLASHAVO    ', 110.0000,1,     0.000,     0.000,   3,   1,1.05681,  -5.4238,   1
  1602,'CLASHAVO    ', 220.0000,1,     0.000,     0.000,   3,   1,1.06224,  -2.1946,   1
  1611,'CLONKEEN    ', 110.0000,1,     0.000,     0.000,   7,   1,1.05175,  -5.6143,   1
  1621,'COOLROE     ', 110.0000,1,     0.000,     0.000,   3,   1,1.05242,  -6.7635,   1
  1631,'CORDERRY    ', 110.0000,1,     0.000,     0.000,   9,   1,1.05444,  -8.1072,   1
  1641,'CASHLA      ', 110.0000,1,     0.000,     0.000,   9,   1,1.06764,  -4.4316,   1
  1642,'CASHLA      ', 220.0000,1,     0.000,     0.000,   9,   1,1.06627,  -2.1893,   1
  1651,'CLAHANE     ', 110.0000,1,     0.000,     0.000,   7,   1,1.06240,  -3.4828,   1
  1661,'CASTLEBA    ', 110.0000,1,     0.000,     0.000,   9,   1,1.05000,  -9.1739,   1
  1681,'CARRIGAD    ', 110.0000,1,     0.000,     0.000,   3,   1,1.05463,  -5.9793,   1
  1691,'CENTRAL     ', 110.0000,1,     0.000,     0.000,   1,   1,1.05853,  -7.6568,   1
  1701,'CATH_FAL    ', 110.0000,1,     0.000,     0.000,   9,   1,1.05180, -10.3825,   1
  1711,'CROMCAST    ', 110.0000,1,     0.000,     0.000,   1,   1,1.07210,  -8.6386,   1
  1721,'CAHIR       ', 110.0000,1,     0.000,     0.000,   5,   1,1.06533,  -8.6514,   1
  1731,'CROMCAST    ', 110.0000,1,     0.000,     0.000,   1,   1,1.07210,  -8.6386,   1
  1741,'CARRICKM    ', 110.0000,1,     0.000,     0.000,   2,   1,1.05867,  -7.6113,   1
  1742,'CARRICKM    ', 220.0000,1,     0.000,     0.000,   2,   1,1.06915,  -5.3148,   1
  1761,'CLIFF       ', 110.0000,1,     0.000,     0.000,   9,   1,1.05182, -10.3828,   1
  1781,'CASTLEFA    ', 110.0000,1,     0.000,     0.000,   7,   1,1.04960,  -1.7737,   5
  1791,'BRACKLON    ', 110.0000,1,     0.000,     0.000,   8,   1,1.05309,  -8.5528,   1
  1801,'COOKSTOW    ', 110.0000,1,     0.000,     0.000,   1,   1,1.05879,  -7.6879,   2
  1821,'CLOON       ', 110.0000,1,     0.000,     0.000,   9,   1,1.05722,  -6.2684,   1
  1831,'SCREEB      ', 110.0000,1,     0.000,     0.000,   9,   1,1.05625,  -5.6630,   2
  1841,'CRANE       ', 110.0000,1,     0.000,     0.000,   6,   1,1.06705,  -5.8738,   1
  1851,'CHERRYWO    ', 110.0000,1,     0.000,     0.000,   2,   1,1.05590,  -7.7583,   1
  1861,'CARICKON    ', 110.0000,1,     0.000,     0.000,   9,   1,1.05091,  -8.3142,   1
  1871,'COLLEGE     ', 110.0000,1,     0.000,     0.000,   2,   1,1.05803,  -7.8586,   1
  1881,'CHARLEVI    ', 110.0000,1,     0.000,     0.000,   3,   1,1.04113,  -7.5234,   1
  1891,'CAULSTOW    ', 110.0000,1,     0.000,     0.000,  10,   1,1.04124,  -9.6527,   1
  1901,'CARLOW      ', 110.0000,1,     0.000,     0.000,   6,   1,1.07035,  -7.7345,   1
  1911,'CUILLEEN    ', 110.0000,1,     0.000,     0.000,   9,   1,1.05587,  -7.1494,   1
  1921,'COW CROS    ', 110.0000,1,     0.000,     0.000,   3,   1,1.05934,  -6.4112,   1
  1931,'CUNGHILL    ', 110.0000,1,     0.000,     0.000,   9,   1,1.05420,  -8.6904,   4
  1941,'CUSHALIN    ', 110.0000,1,     0.000,     0.000,   8,   1,1.07500,  -6.2915,   1
  1951,'CARROWBE    ', 110.0000,1,     0.000,     0.000,   9,   1,1.03750, -10.0571,   1
  1961,'CASTLEVI    ', 110.0000,1,     0.000,     0.000,   3,   1,1.05698,  -6.5851,   1
  1971,'COOMAGEA    ', 110.0000,1,     0.000,     0.000,   7,   1,1.05000,   1.0545,   4
  1981,'CORRACLA    ', 110.0000,1,     0.000,     0.000,   9,   1,1.04523, -11.8510,   1
  1991,'CASTLEDO    ', 110.0000,1,     0.000,     0.000,   6,   1,1.06852,  -5.1458,   1
  2001,'CULLENAG    ', 110.0000,1,     0.000,     0.000,   5,   1,1.06373,  -7.0216,   1
  2002,'CULLENAG    ', 220.0000,1,     0.000,     0.000,   5,   1,1.07249,  -4.1361,   1
  2021,'CITY WES    ', 110.0000,1,     0.000,     0.000,   1,   1,1.04552, -10.1581,   2
  2041,'CORDUFF     ', 110.0000,1,     0.000,     0.000,   2,   1,1.05854,  -7.7799,   1
  2042,'CORDUFF     ', 220.0000,1,     0.000,     0.000,   2,   1,1.07500,  -4.7646,   1
  2051,'BLACKPOO    ', 110.0000,1,     0.000,     0.000,   3,   1,1.05249,  -7.0435,   1
  2052,'CORDUFFB    ', 220.0000,1,     0.000,     0.000,   2,   1,1.07500,  -4.7646,   1
  2081,'DUNKETTL    ', 110.0000,4,     0.000,     0.000,   3,   1,1.00000,   0.0000,   5
  2090,'WEST GAL    ', 110.0000,1,     0.000,     0.000,   9,   1,1.07559,  -3.6750,   1
  2091,'WEST GAL    ', 110.0000,1,     0.000,     0.000,   9,   1,1.06298,  -5.1678,   1
  2101,'DUNDALK     ', 110.0000,1,     0.000,     0.000,  10,   1,1.04744,  -9.7688,   2
  2111,'UGOOL       ', 110.0000,1,     0.000,     0.000,   9,   1,1.07910,  -3.1204,   1
  2121,'DRUMLINE    ', 110.0000,1,     0.000,     0.000,   4,   1,1.04957,  -6.6398,   1
  2131,'DROMADA     ', 110.0000,1,     0.000,     0.000,   3,   1,1.05000,   1.2545,   1
  2141,'DUNGARVA    ', 110.0000,1,     0.000,     0.000,   5,   1,1.05416,  -7.8796,   1
  2161,'DOON        ', 110.0000,1,     0.000,     0.000,   5,   1,1.05574,  -8.8745,   1
  2181,'DRYBRIDG    ', 110.0000,1,     0.000,     0.000,  10,   1,1.04141,  -9.7136,   1
  2202,'DUNSTOWN    ', 220.0000,1,     0.000,     0.000,   2,   1,1.06873,  -4.3090,   1
  2204,'DUNSTOWN    ', 380.0000,1,     0.000,     0.000,   2,   1,1.03568,  -2.4085,   1
  2221,'DUNMANWA    ', 110.0000,1,     0.000,     0.000,   3,   1,1.05334,  -6.1334,   1
  2231,'DERRYBRI    ', 110.0000,1,     0.000,     0.000,   4,   1,1.06303,  -4.2626,   2
  2241,'DALLOW      ', 110.0000,1,     0.000,     0.000,   5,   1,1.06410,  -6.5722,   2
  2251,'DARDISTO    ', 110.0000,1,     0.000,     0.000,   1,   1,1.07254,  -8.6127,   2
  2261,'DERRYIRO    ', 110.0000,1,     0.000,     0.000,   8,   1,1.05152,  -7.9333,   1
  2281,'DALTON      ', 110.0000,1,     0.000,     0.000,   9,   1,1.04664,  -8.0778,   1
  2301,'DUNFIRTH    ', 110.0000,1,     0.000,     0.000,   8,   1,1.05203,  -8.1849,   2
  2321,'DRUMKEEN    ', 110.0000,1,     0.000,     0.000,   9,   1,1.04574, -11.2605,   1
  2361,'ENNIS       ', 110.0000,1,     0.000,     0.000,   4,   1,1.05000,  -5.8435,   1
  2391,'KILL HIL    ', 110.0000,1,     0.000,     0.000,   5,   1,1.06389,  -8.2845,   1
  2401,'MOUNTLUC    ', 110.0000,1,     0.000,     0.000,   8,   1,1.05840,  -6.3539,   1
  2411,'KNOCKMUL    ', 110.0000,1,     0.000,     0.000,   6,   1,1.06152,  -7.0853,   1
  2481,'FASS EAS    ', 110.0000,1,     0.000,     0.000,   2,   1,1.05388,  -7.8342,   2
  2491,'FASS WES    ', 110.0000,1,     0.000,     0.000,   2,   1,1.05411,  -7.8233,   2
  2521,'FLAGFORD    ', 110.0000,1,     0.000,     0.000,   9,   1,1.05207,  -8.1643,   1
  2522,'FLAGFORD    ', 220.0000,1,     0.000,     0.000,   9,   1,1.05609,  -6.4410,   1
  2541,'FRN ST A    ', 110.0000,1,     0.000,     0.000,   1,   1,1.07293,  -6.7308,   2
  2551,'FRN ST B    ', 110.0000,1,     0.000,     0.000,   1,   1,1.06878,  -7.9158,   2
  2561,'FIN_URBA    ', 110.0000,1,     0.000,     0.000,   2,   1,1.05954,  -7.1249,   2
  2562,'FINGLAS     ', 220.0000,1,     0.000,     0.000,   2,   1,1.07500,  -4.9535,   1
  2563,'FINGLAS2    ', 220.0000,1,     0.000,     0.000,   2,   1,1.07500,  -4.9535,   1
  2571,'FIN_RURA    ', 110.0000,1,     0.000,     0.000,   2,   1,1.07290,  -8.4472,   2
  2581,'KILDONAN    ', 110.0000,1,     0.000,     0.000,   2,   1,1.05727,  -7.9407,   2
  2671,'GARVAGH     ', 110.0000,1,     0.000,     0.000,   9,   1,1.05434,  -7.9088,   4
  2681,'GILRA       ', 110.0000,1,     0.000,     0.000,   9,   1,1.05402,  -8.4510,   2
  2701,'GLASMORE    ', 110.0000,1,     0.000,     0.000,   1,   1,1.05648,  -9.5137,   2
  2721,'GRIFFINR    ', 110.0000,1,     0.000,     0.000,   2,   1,1.06069,  -7.6154,   2
  2731,'GLANLEE     ', 110.0000,1,     0.000,     0.000,   7,   1,1.05005,   1.0726,   4
  2741,'GREAT IS    ', 110.0000,1,     0.000,     0.000,   6,   1,1.06577,  -6.7547,   1
  2742,'GREAT IS    ', 220.0000,1,     0.000,     0.000,   6,   1,1.07500,  -3.4931,   1
  2761,'GRANGE      ', 110.0000,1,     0.000,     0.000,   1,   1,1.07189,  -8.6602,   2
  2771,'GARROW      ', 110.0000,1,     0.000,     0.000,   7,   1,1.04945,   0.3764,   7
  2780,'GALWAY      ', 110.0000,1,     0.000,     0.000,   9,   1,1.06581,  -4.7526,   1
  2781,'GALWAY      ', 110.0000,1,     0.000,     0.000,   9,   1,1.06581,  -4.7526,   1
  2801,'GOLAGH      ', 110.0000,1,     0.000,     0.000,   9,   1,1.04802, -10.4281,   4
  2821,'GORTAWEE    ', 110.0000,1,     0.000,     0.000,   9,   1,1.04435, -11.9928,   1
  2841,'GORMAN      ', 110.0000,1,     0.000,     0.000,  10,   1,1.04034,  -9.6630,   1
  2842,'GORMAN      ', 220.0000,1,     0.000,     0.000,  10,   1,1.05116,  -7.1926,   1
  2852,'GLANAGOW    ', 220.0000,1,     0.000,     0.000,   3,   1,1.07821,  -3.2031,   1
  2861,'GRANGE C    ', 110.0000,1,     0.000,     0.000,   1,   1,1.04602,  -9.9891,   2
  2870,'CLOGHER     ', 110.0000,1,     0.000,     0.000,   9,   1,1.04941, -10.4171,   1
  2871,'CLOGHER     ', 110.0000,1,     0.000,     0.000,   9,   1,1.04941, -10.4171,   1
  2881,'GLENLARA    ', 110.0000,1,     0.000,     0.000,   3,   1,1.03570,  -7.6861,   2
  2941,'HAROLDS     ', 110.0000,1,     0.000,     0.000,   1,   1,1.07323,  -6.7343,   2
  2951,'HEUSTON     ', 110.0000,1,     0.000,     0.000,   1,   1,1.06897,  -7.9012,   2
  2962,'HUNTSTOW    ', 220.0000,1,     0.000,     0.000,   2,   1,1.07505,  -4.9118,   4
  2972,'HUNTSTOW    ', 220.0000,1,     0.000,     0.000,   2,   1,1.07597,  -4.5954,   4
  2981,'HARTNETT    ', 110.0000,1,     0.000,     0.000,   3,   1,1.05376,  -5.9505,   2
  3061,'INISCARR    ', 110.0000,1,     0.000,     0.000,   3,   1,1.05276,  -6.6505,   1
  3081,'INCH_CIT    ', 110.0000,1,     0.000,     0.000,   2,   1,1.06931,  -7.8634,   2
  3082,'INCHICOR    ', 220.0000,1,     0.000,     0.000,   2,   1,1.07430,  -5.9749,   1
  3091,'INCH_COU    ', 110.0000,1,     0.000,     0.000,   2,   1,1.05088,  -9.7887,   2
  3101,'IKERRIN     ', 110.0000,1,     0.000,     0.000,   5,   1,1.05456,  -8.1920,   2
  3122,'IRISHTOW    ', 220.0000,1,     0.000,     0.000,   2,   1,1.07500,  -5.2302,   1
  3190,'NORTH KE    ', 110.0000,1,     0.000,     0.000,   7,   1,1.05964,  -3.4134,   1
  3191,'NORTH KE    ', 110.0000,1,     0.000,     0.000,   7,   1,1.05236,   0.5429,   1
  3192,'NORTH KE    ', 220.0000,1,     0.000,     0.000,   7,   1,1.06694,  -0.8526,   1
  3200,'KNOCKRAH    ', 110.0000,1,     0.000,     0.000,   3,   1,1.07099,  -3.9336,   1
  3201,'KNOCKRAH    ', 110.0000,1,     0.000,     0.000,   3,   1,1.06102,  -6.3597,   1
  3202,'KNOCKRAH    ', 220.0000,1,     0.000,     0.000,   3,   1,1.07099,  -3.9336,   1
  3203,'KNOCKRAH    ', 220.0000,1,     0.000,     0.000,   3,   1,1.07099,  -3.9336,   1
  3209,'KNOCKRAH    ', 110.0000,1,     0.000,     0.000,   3,   1,1.06102,  -6.3597,   1
  3211,'KNOCKAVA    ', 110.0000,1,     0.000,     0.000,   4,   1,1.06256,  -4.3274,   1
  3221,'KILBARRY    ', 110.0000,1,     0.000,     0.000,   3,   1,1.05253,  -7.0411,   1
  3241,'KILTEEL     ', 110.0000,1,     0.000,     0.000,   8,   1,1.06194,  -8.8829,   2
  3251,'REAMORE     ', 110.0000,1,     0.000,     0.000,   7,   1,1.06364,  -3.7464,   1
  3261,'KILKENNY    ', 110.0000,1,     0.000,     0.000,   6,   1,1.05679,  -9.5317,   1
  3281,'KILLONAN    ', 110.0000,1,     0.000,     0.000,   7,   1,1.05657,  -6.1524,   1
  3282,'KILLONAN    ', 220.0000,1,     0.000,     0.000,   7,   1,1.05658,  -4.5876,   1
  3301,'KNOCKERA    ', 110.0000,1,     0.000,     0.000,   7,   1,1.04770,  -5.7388,   1
  3321,'KNOCKUMB    ', 110.0000,1,     0.000,     0.000,  10,   1,1.03193, -10.1909,   5
  3330,'BALLYNAH    ', 110.0000,1,     0.000,     0.000,   3,   1,1.05319,   0.4503,   1
  3331,'BALLYNAH    ', 110.0000,1,     0.000,     0.000,   3,   1,1.05319,   0.4503,   1
  3332,'BALLYNAH    ', 220.0000,1,     0.000,     0.000,   3,   1,1.06282,  -0.7754,   1
  3341,'KELLIS      ', 110.0000,1,     0.000,     0.000,   6,   1,1.07503,  -7.5719,   1
  3342,'KELLIS      ', 220.0000,1,     0.000,     0.000,   6,   1,1.06114,  -5.0405,   1
  3361,'KILTOY      ', 110.0000,1,     0.000,     0.000,   9,   1,1.04101, -11.8637,   5
  3381,'KINNEGAD    ', 110.0000,1,     0.000,     0.000,   8,   1,1.04908,  -8.3261,   1
  3391,'KNOCKACU    ', 110.0000,1,     0.000,     0.000,   3,   1,1.05000,   1.5426,   1
  3401,'KILLOTER    ', 110.0000,1,     0.000,     0.000,   5,   1,1.06041,  -7.3318,   1
  3421,'KILMORE     ', 110.0000,1,     0.000,     0.000,   1,   1,1.07208,  -8.6382,   2
  3431,'KILMAHUD    ', 110.0000,1,     0.000,     0.000,   1,   1,1.04575, -10.0064,   1
  3462,'TEMP        ', 220.0000,1,     0.000,     0.000,   7,   1,1.06995,  -1.4528,   1
  3472,'KILPADDO    ', 220.0000,1,     0.000,     0.000,   7,   1,1.06895,  -1.7443,   1
  3501,'LANESBOR    ', 110.0000,1,     0.000,     0.000,   9,   1,1.05000,  -6.4092,   1
  3521,'LOUTHA      ', 110.0000,1,     0.000,     0.000,  10,   1,1.06258,  -9.1469,   1
  3522,'LOUTH       ', 220.0000,1,     0.000,     0.000,  10,   1,1.04536,  -7.2544,   1
  3541,'LIMERICK    ', 110.0000,1,     0.000,     0.000,   7,   1,1.04953,  -6.0915,   1
  3561,'LISDRUM     ', 110.0000,1,     0.000,     0.000,  10,   1,1.06095, -11.2267,   1
...
0 / END OF BUS DATA, BEGIN LOAD DATA
    10,'LD',1,   2,   1,    44.370,    30.500,     0.000,     0.000,     0.000,     0.000,   2
    11,'LD',1,   2,   1,    29.740,    21.120,     0.000,     0.000,     0.000,     0.000,   2
    12,'LD',1,   1,   1,     5.030,     1.650,     0.000,     0.000,     0.000,     0.000,   2
    13,'LD',1,   1,   1,     8.450,     2.900,     0.000,     0.000,     0.000,     0.000,   2
    14,'LD',1,   2,   1,    41.880,    13.780,     0.000,     0.000,     0.000,     0.000,   2
    15,'LD',1,   2,   1,    43.970,    14.480,     0.000,     0.000,     0.000,     0.000,   2
  1041,'LD',1,   3,   1,     1.330,     0.070,     0.000,     0.000,     0.000,     0.000,   2
  1101,'I ',1,   5,   2,    11.000,     6.000,     0.000,     0.000,     0.000,     0.000,   5
  1101,'MI',1,   5,   2,     5.620,    -1.020,     0.000,     0.000,     0.000,     0.000,   5
  4341,'I ',1,   3,   2,     1.300,     0.390,     0.000,     0.000,     0.000,     0.000,   5
 10204,'LD',1,   4,   1,    12.900,     7.220,     0.000,     0.000,     0.000,     0.000,   2
 10205,'LD',1,   4,   1,    12.900,     7.220,     0.000,     0.000,     0.000,     0.000,   2
 10470,'HL',0,   3,   1,    11.070,     3.980,     0.000,     0.000,     0.000,     0.000,   1
 10471,'HL',0,   3,   1,    11.990,     4.310,     0.000,     0.000,     0.000,     0.000,   3
 10602,'LD',1,   9,   1,     5.200,     1.270,     0.000,     0.000,     0.000,     0.000,   2
 10801,'LD',1,   7,   1,     4.800,     1.060,     0.000,     0.000,     0.000,     0.000,   2
 10901,'I ',1,   1,   2,     9.500,     3.120,     0.000,     0.000,     0.000,     0.000,   5
 10901,'LD',1,   1,   1,     5.770,     1.880,     0.000,     0.000,     0.000,     0.000,   2
 11201,'LD',1,   6,   1,     6.090,     2.000,     0.000,     0.000,     0.000,     0.000,   2
 11204,'LD',1,   6,   1,     9.900,     3.260,     0.000,     0.000,     0.000,     0.000,   2
 11404,'LD',1,   9,   1,    51.260,    11.070,     0.000,     0.000,     0.000,     0.000,   2
 12001,'LD',1,   1,   1,    11.720,     1.810,     0.000,     0.000,     0.000,     0.000,   2
 12201,'LD',1,   8,   1,    13.070,     3.460,     0.000,     0.000,     0.000,     0.000,   2
 12702,'LD',1,  10,   1,    11.520,     1.550,     0.000,     0.000,     0.000,     0.000,   2
 12804,'LD',1,   3,   1,     3.870,     1.250,     0.000,     0.000,     0.000,     0.000,   2
 13001,'LD',1,   6,   1,    10.230,     3.340,     0.000,     0.000,     0.000,     0.000,   2
 13204,'LD',1,   8,   1,     7.000,     1.270,     0.000,     0.000,     0.000,     0.000,   2
 13404,'LD',1,   9,   1,    14.410,     4.720,     0.000,     0.000,     0.000,     0.000,   2
 13501,'I ',1,   8,   2,     9.500,     2.850,     0.000,     0.000,     0.000,     0.000,   5
 13501,'LD',1,   8,   1,    11.160,     3.570,     0.000,     0.000,     0.000,     0.000,   2
 13601,'I ',1,   5,   2,     5.290,     1.460,     0.000,     0.000,     0.000,     0.000,   5
 13601,'MI',1,   5,   2,     3.920,     1.300,     0.000,     0.000,     0.000,     0.000,   5
 13604,'LD',1,   5,   1,    11.200,     4.150,     0.000,     0.000,     0.000,     0.000,   2
 13802,'LD',1,   3,   1,    19.440,     5.450,     0.000,     0.000,     0.000,     0.000,   2
 13804,'LD',1,   3,   1,    16.570,     4.690,     0.000,     0.000,     0.000,     0.000,   2
 14004,'LD',1,   9,   1,     9.320,     3.780,     0.000,     0.000,     0.000,     0.000,   2
 14204,'LD',1,   1,   1,    27.870,    -0.050,     0.000,     0.000,     0.000,     0.000,   2
 14401,'LD',1,   3,   1,     5.070,     1.910,     0.000,     0.000,     0.000,     0.000,   2
 14404,'LD',1,   3,   1,    34.200,    11.980,     0.000,     0.000,     0.000,     0.000,   2
 14502,'I ',1,   1,   2,    23.750,     7.800,     0.000,     0.000,     0.000,     0.000,   5
 14604,'LD',1,   5,   1,    21.370,     4.430,     0.000,     0.000,     0.000,     0.000,   2
 14804,'LD',1,   5,   1,    30.500,     6.600,     0.000,     0.000,     0.000,     0.000,   2
 14902,'HL',0,  10,   1,     4.940,     1.780,     0.000,     0.000,     0.000,     0.000,   1
 15001,'I ',1,   3,   2,     4.590,     1.700,     0.000,     0.000,     0.000,     0.000,   5
 15001,'MI',1,   3,   2,     1.580,     0.150,     0.000,     0.000,     0.000,     0.000,   5
 15402,'LD',1,   6,   1,    14.020,     4.610,     0.000,     0.000,     0.000,     0.000,   2
 15704,'LD',1,   9,   1,    13.270,     4.400,     0.000,     0.000,     0.000,     0.000,   2
 15801,'LD',1,   1,   1,     7.060,     2.320,     0.000,     0.000,     0.000,     0.000,   2
 16202,'LD',1,   3,   1,    13.370,     1.420,     0.000,     0.000,     0.000,     0.000,   2
 16604,'LD',1,   9,   1,    28.860,     7.690,     0.000,     0.000,     0.000,     0.000,   2
 16901,'LD',1,   1,   1,     7.980,     1.250,     0.000,     0.000,     0.000,     0.000,   2
 17004,'LD',1,   9,   1,     4.280,     1.410,     0.000,     0.000,     0.000,     0.000,   2
 17204,'LD',1,   5,   1,    30.670,     8.730,     0.000,     0.000,     0.000,     0.000,   2
 17404,'LD',1,   2,   1,    52.840,    27.530,     0.000,     0.000,     0.000,     0.000,   2
 17802,'I ',1,   7,   2,    49.000,    14.700,     0.000,     0.000,     0.000,     0.000,   5
 17901,'LD',1,   8,   1,    11.610,     3.840,     0.000,     0.000,     0.000,     0.000,   2
 18001,'LD',1,   1,   1,     3.570,     1.160,     0.000,     0.000,     0.000,     0.000,   2
 18004,'LD',1,   1,   1,    48.810,     8.630,     0.000,     0.000,     0.000,     0.000,   2
 18204,'LD',1,   9,   1,    23.300,     9.500,     0.000,     0.000,     0.000,     0.000,   2
 18304,'LD',1,   9,   1,    12.500,     4.110,     0.000,     0.000,     0.000,     0.000,   2
 18402,'LD',1,   6,   1,     7.390,     2.370,     0.000,     0.000,     0.000,     0.000,   2
 18404,'LD',1,   6,   1,    17.770,     4.750,     0.000,     0.000,     0.000,     0.000,   2
 18504,'I ',1,   2,   2,    19.000,     6.240,     0.000,     0.000,     0.000,     0.000,   5
 18504,'LD',1,   2,   1,    23.760,     7.810,     0.000,     0.000,     0.000,     0.000,   2
 18604,'LD',1,   9,   1,    25.440,     5.730,     0.000,     0.000,     0.000,     0.000,   2
 18701,'LD',1,   2,   1,    23.430,     4.310,     0.000,     0.000,     0.000,     0.000,   2
 18804,'LD',1,   3,   1,    14.950,     5.220,     0.000,     0.000,     0.000,     0.000,   2
 18901,'HL',0,  10,   1,     0.980,     0.350,     0.000,     0.000,     0.000,     0.000,   1
 19004,'LD',1,   6,   1,    27.130,     8.920,     0.000,     0.000,     0.000,     0.000,   2
 19204,'LD',1,   3,   1,    14.420,     2.690,     0.000,     0.000,     0.000,     0.000,   2
 19471,'HL',1,   8,   1,    11.700,     4.210,     0.000,     0.000,     0.000,     0.000,   4
 19504,'LD',1,   9,   1,    22.660,     6.040,     0.000,     0.000,     0.000,     0.000,   2
 19601,'LD',1,   3,   1,    27.810,     7.450,     0.000,     0.000,     0.000,     0.000,   2
 20201,'LD',1,   1,   1,    28.690,    10.820,     0.000,     0.000,     0.000,     0.000,   2
 20501,'LD',1,   3,   1,    17.860,     5.630,     0.000,     0.000,     0.000,     0.000,   2
 21004,'LD',1,  10,   1,    28.960,     5.160,     0.000,     0.000,     0.000,     0.000,   2
 21202,'LD',1,   4,   1,     9.650,     3.130,     0.000,     0.000,     0.000,     0.000,   2
 21204,'LD',1,   4,   1,    20.110,     7.080,     0.000,     0.000,     0.000,     0.000,   2
 21404,'LD',1,   5,   1,    33.490,     6.600,     0.000,     0.000,     0.000,     0.000,   2
 21604,'LD',1,   5,   1,    12.770,     4.200,     0.000,     0.000,     0.000,     0.000,   2
 21804,'LD',1,  10,   1,    60.730,    15.980,     0.000,     0.000,     0.000,     0.000,   2
 22204,'LD',1,   3,   1,    19.390,     9.480,     0.000,     0.000,     0.000,     0.000,   2
 22404,'LD',1,   5,   1,    15.160,     4.640,     0.000,     0.000,     0.000,     0.000,   2
 22501,'I ',1,   1,   2,    10.450,     3.434,     0.000,     0.000,     0.000,     0.000,   5
 22671,'HL',0,   8,   1,     0.300,     0.100,     0.000,     0.000,     0.000,     0.000,   1
 22672,'HL',0,   8,   1,     0.300,     0.100,     0.000,     0.000,     0.000,     0.000,   1
 22804,'LD',1,   9,   1,    20.880,     5.820,     0.000,     0.000,     0.000,     0.000,   2
 23001,'LD',1,   8,   1,     6.240,     0.590,     0.000,     0.000,     0.000,     0.000,   2
 23604,'LD',1,   4,   1,    50.180,    13.940,     0.000,     0.000,     0.000,     0.000,   2
 24104,'LD',1,   6,   1,    14.420,     4.730,     0.000,     0.000,     0.000,     0.000,   2
 24804,'LD',1,   2,   1,    40.470,    15.920,     0.000,     0.000,     0.000,     0.000,   2
 25604,'LD',1,   2,   1,    51.510,    10.660,     0.000,     0.000,     0.000,     0.000,   2
 26802,'I ',1,   9,   2,    10.440,     3.130,     0.000,     0.000,     0.000,     0.000,   5
 26802,'MI',1,   9,   2,     0.060,     0.020,     0.000,     0.000,     0.000,     0.000,   5
 27004,'LD',1,   1,   1,    57.360,    16.960,     0.000,     0.000,     0.000,     0.000,   2
 27204,'LD',1,   2,   1,    39.390,    11.650,     0.000,     0.000,     0.000,     0.000,   2
 27404,'LD',1,   6,   1,     1.740,     0.580,     0.000,     0.000,     0.000,     0.000,   2
 27474,'HL',1,   6,   1,     5.430,     1.950,     0.000,     0.000,     0.000,     0.000,   1
 27604,'LD',1,   1,   1,    38.520,    10.480,     0.000,     0.000,     0.000,     0.000,   2
 27801,'LD',1,   9,   1,    21.630,     6.030,     0.000,     0.000,     0.000,     0.000,   2
 27804,'LD',1,   9,   1,    46.390,     5.490,     0.000,     0.000,     0.000,     0.000,   2
 28201,'I ',1,   9,   2,    20.900,     6.270,     0.000,     0.000,     0.000,     0.000,   5
 28204,'LD',1,   9,   1,    12.720,     4.000,     0.000,     0.000,     0.000,     0.000,   2
 28571,'HL',1,   3,   1,     3.600,     1.290,     0.000,     0.000,     0.000,     0.000,   1
 28601,'I ',1,   1,   2,     9.000,     2.700,     0.000,     0.000,     0.000,     0.000,   5
 28601,'LD',1,   1,   1,    10.520,     1.340,     0.000,     0.000,     0.000,     0.000,   2
 28604,'LD',1,   1,   1,    45.020,    11.630,     0.000,     0.000,     0.000,     0.000,   2
 28611,'I ',1,   1,   2,     9.000,     2.700,     0.000,     0.000,     0.000,     0.000,   5
 28804,'LD',1,   3,   1,    12.290,     3.490,     0.000,     0.000,     0.000,     0.000,   2
 29401,'LD',1,   1,   1,    21.750,     6.030,     0.000,     0.000,     0.000,     0.000,   2
 29501,'LD',1,   1,   1,     5.090,     1.610,     0.000,     0.000,     0.000,     0.000,   2
 29672,'HL',0,   2,   1,     7.180,     2.580,     0.000,     0.000,     0.000,     0.000,   4
 29801,'LD',1,   3,   1,     7.960,     2.590,     0.000,     0.000,     0.000,     0.000,   2
 30804,'LD',1,   2,   1,    33.420,    11.060,     0.000,     0.000,     0.000,     0.000,   2
 31004,'LD',1,   5,   1,    33.480,    11.930,     0.000,     0.000,     0.000,     0.000,   2
 31271,'HL',1,   2,   1,     5.040,     1.810,     0.000,     0.000,     0.000,     0.000,   4
 32201,'LD',1,   3,   1,    11.030,     2.580,     0.000,     0.000,     0.000,     0.000,   2
 32204,'LD',1,   3,   1,    48.260,     6.130,     0.000,     0.000,     0.000,     0.000,   2
 32404,'LD',1,   8,   1,    29.260,    11.530,     0.000,     0.000,     0.000,     0.000,   2
 32604,'LD',1,   6,   1,    61.840,    25.120,     0.000,     0.000,     0.000,     0.000,   2
 33004,'LD',1,   7,   1,    36.170,    10.630,     0.000,     0.000,     0.000,     0.000,   2
 33201,'I ',1,  10,   2,    23.000,     6.900,     0.000,     0.000,     0.000,     0.000,   5
 33201,'MI',1,  10,   2,     6.440,     1.930,     0.000,     0.000,     0.000,     0.000,   5
 33801,'I ',1,   8,   2,    10.220,     3.060,     0.000,     0.000,     0.000,     0.000,   5
 33801,'MI',1,   8,   2,     1.500,     0.450,     0.000,     0.000,     0.000,     0.000,   5
 34001,'LD',1,   5,   1,    10.170,     2.840,     0.000,     0.000,     0.000,     0.000,   2
 34201,'LD',1,   1,   1,    14.470,     4.510,     0.000,     0.000,     0.000,     0.000,   2
 34301,'I ',1,   1,   2,    23.750,     7.120,     0.000,     0.000,     0.000,     0.000,   5
 35004,'LD',1,   9,   1,    11.820,     3.680,     0.000,     0.000,     0.000,     0.000,   2
 35074,'HL',1,   9,   1,     9.000,     3.240,     0.000,     0.000,     0.000,     0.000,   3
 35404,'LD',1,   7,   1,    72.770,    14.370,     0.000,     0.000,     0.000,     0.000,   2
 35604,'LD',1,  10,   1,    25.160,     7.480,     0.000,     0.000,     0.000,     0.000,   2
 35804,'LD',1,   9,   1,    38.560,     9.480,     0.000,     0.000,     0.000,     0.000,   2
 36001,'LD',1,   3,   1,    23.250,     6.550,     0.000,     0.000,     0.000,     0.000,   2
 36201,'I ',1,   5,   2,    16.600,     3.600,     0.000,     0.000,     0.000,     0.000,   5
 36201,'MI',1,   5,   2,     2.390,     2.100,     0.000,     0.000,     0.000,     0.000,   5
 37501,'LD',1,   1,   1,    21.800,     3.950,     0.000,     0.000,     0.000,     0.000,   2
 37601,'LD',1,   1,   1,    21.530,     4.020,     0.000,     0.000,     0.000,     0.000,   2
 37602,'I ',1,   1,   2,     5.000,     1.500,     0.000,     0.000,     0.000,     0.000,   5
 37602,'MI',1,   1,   2,     5.440,     1.630,     0.000,     0.000,     0.000,     0.000,   5
 38001,'LD',1,   3,   1,    11.400,     2.560,     0.000,     0.000,     0.000,     0.000,   2
 38004,'LD',1,   3,   1,     6.390,     1.730,     0.000,     0.000,     0.000,     0.000,   2
 38204,'LD',1,  10,   1,    25.890,    12.060,     0.000,     0.000,     0.000,     0.000,   2
 38601,'LD',1,   1,   1,     5.640,     0.940,     0.000,     0.000,     0.000,     0.000,   2
 38701,'LD',1,   1,   1,     7.790,     1.150,     0.000,     0.000,     0.000,     0.000,   2
 38804,'LD',1,   3,   1,     4.180,    -0.110,     0.000,     0.000,     0.000,     0.000,   2
 39471,'HL',1,   4,   1,    17.910,     6.440,     0.000,     0.000,     0.000,     0.000,   3
 39472,'HL',1,   4,   1,    17.910,     6.440,     0.000,     0.000,     0.000,     0.000,   3
 39473,'HL',1,   4,   1,    17.910,     6.440,     0.000,     0.000,     0.000,     0.000,   3
 39601,'LD',1,   3,   1,    16.610,     3.480,     0.000,     0.000,     0.000,     0.000,   2
 39675,'HL',0,   3,   1,     5.000,     1.800,     0.000,     0.000,     0.000,     0.000,   3
 39801,'I ',1,   7,   2,    22.000,     6.600,     0.000,     0.000,     0.000,     0.000,   5
 39801,'MI',1,   7,   2,     1.500,     0.450,     0.000,     0.000,     0.000,     0.000,   5
 40001,'LD',1,   9,   1,    12.730,     4.020,     0.000,     0.000,     0.000,     0.000,   2
 40004,'LD',1,   9,   1,    25.160,     8.060,     0.000,     0.000,     0.000,     0.000,   2
 40204,'LD',1,   3,   1,    18.200,     6.330,     0.000,     0.000,     0.000,     0.000,   2
 40404,'LD',1,   9,   1,    18.170,     4.060,     0.000,     0.000,     0.000,     0.000,   2
 40602,'I ',1,  10,   2,     5.180,     1.550,     0.000,     0.000,     0.000,     0.000,   5
 40602,'MI',1,  10,   2,     2.420,     0.730,     0.000,     0.000,     0.000,     0.000,   5
 40604,'LD',1,  10,   1,    26.300,     8.640,     0.000,     0.000,     0.000,     0.000,   2
 40801,'LD',1,   8,   1,     8.280,     1.740,     0.000,     0.000,     0.000,     0.000,   2
 41002,'I ',1,   1,   2,    18.000,     5.900,     0.000,     0.000,     0.000,     0.000,   5
 41102,'I ',1,   1,   2,    24.000,    11.630,     0.000,     0.000,     0.000,     0.000,   5
 42004,'LD',1,   8,   1,    19.700,     5.820,     0.000,     0.000,     0.000,     0.000,   2
 42102,'LD',1,   1,   1,    13.710,     2.200,     0.000,     0.000,     0.000,     0.000,   2
 42204,'LD',1,  10,   1,    43.430,    11.780,     0.000,     0.000,     0.000,     0.000,   2
 42501,'HL',0,   6,   1,     3.970,     1.430,     0.000,     0.000,     0.000,     0.000,   1
 42604,'LD',1,   7,   1,    25.450,     8.390,     0.000,     0.000,     0.000,     0.000,   2
 42802,'I ',1,   1,   2,    26.000,     7.800,     0.000,     0.000,     0.000,     0.000,   5
 43604,'LD',1,   7,   1,    21.140,     4.790,     0.000,     0.000,     0.000,     0.000,   2
 44001,'LD',1,   1,   1,    15.430,     2.250,     0.000,     0.000,     0.000,     0.000,   2
 44802,'LD',1,   8,   1,     8.480,     2.770,     0.000,     0.000,     0.000,     0.000,   2
 44804,'LD',1,   8,   1,    43.440,    13.940,     0.000,     0.000,     0.000,     0.000,   2
 44901,'LD',1,   1,   1,    10.910,     1.110,     0.000,     0.000,     0.000,     0.000,   2
 45001,'I ',1,  10,   2,    29.000,     9.100,     0.000,     0.000,     0.000,     0.000,   5
 45001,'MI',1,  10,   2,     3.290,     0.580,     0.000,     0.000,     0.000,     0.000,   5
 45101,'LD',1,   1,   1,    12.160,     2.200,     0.000,     0.000,     0.000,     0.000,   2
 46210,'I ',1,   2,   2,    34.840,    10.450,     0.000,     0.000,     0.000,     0.000,   5
 46214,'I ',1,   2,   2,    34.840,    10.450,     0.000,     0.000,     0.000,     0.000,   5
 46224,'I ',1,   2,   2,    34.840,    10.450,     0.000,     0.000,     0.000,     0.000,   5
 46501,'LD',1,   1,   1,     4.820,     3.050,     0.000,     0.000,     0.000,     0.000,   2
 46511,'HL',1,   1,   1,     9.360,     3.360,     0.000,     0.000,     0.000,     0.000,   1
 46804,'LD',1,   7,   1,    18.480,     6.970,     0.000,     0.000,     0.000,     0.000,   2
 47004,'LD',1,   9,   1,    25.230,     9.580,     0.000,     0.000,     0.000,     0.000,   2
 47402,'I ',1,   2,   2,    15.200,     4.560,     0.000,     0.000,     0.000,     0.000,   5
 47601,'LD',1,   3,   1,     2.120,     0.230,     0.000,     0.000,     0.000,     0.000,   2
 49001,'I ',1,   6,   2,     2.290,     0.680,     0.000,     0.000,     0.000,     0.000,   5
 49474,'HL',1,   5,   1,    12.890,     4.640,     0.000,     0.000,     0.000,     0.000,   3
 49501,'LD',1,   9,   1,    15.010,     2.050,     0.000,     0.000,     0.000,     0.000,   2
 49504,'LD',1,   9,   1,    23.220,     6.610,     0.000,     0.000,     0.000,     0.000,   2
 49604,'LD',1,  10,   1,    49.820,    18.400,     0.000,     0.000,     0.000,     0.000,   2
 49804,'LD',1,   9,   1,    46.920,    11.290,     0.000,     0.000,     0.000,     0.000,   2
 50004,'LD',1,   9,   1,    18.350,     5.780,     0.000,     0.000,     0.000,     0.000,   2
 50276,'HL',1,   2,   1,     5.880,     2.110,     0.000,     0.000,     0.000,     0.000,   3
 50301,'LD',1,   1,   1,    11.610,     3.810,     0.000,     0.000,     0.000,     0.000,   2
 50573,'HL',1,   7,   1,     0.980,     0.350,     0.000,     0.000,     0.000,     0.000,   4
 50574,'HL',1,   7,   1,     0.980,     0.350,     0.000,     0.000,     0.000,     0.000,   4
 50604,'LD',1,   6,   1,    15.950,     6.070,     0.000,     0.000,     0.000,     0.000,   2
 50901,'LD',1,   7,   1,     9.730,     1.960,     0.000,     0.000,     0.000,     0.000,   2
 51301,'LD',1,   1,   1,    10.910,     1.770,     0.000,     0.000,     0.000,     0.000,   2
...
0 / END OF LOAD DATA, BEGIN GENERATOR DATA
 10271,'1 ',    21.000,     0.000,    15.000,    -7.000,1.05000,  1021,    34.000,   0.00000,   0.22000,   0.00000,   0.00000,1.00000,0,   15.0,    21.000,     5.000,   3,1.0000
 10272,'2 ',    22.000,     0.000,    15.000,    -7.000,1.05000,  1021,    34.000,   0.00000,   0.22000,   0.00000,   0.00000,1.00000,0,   15.0,    22.000,     5.000,   3,1.0000
 10273,'3 ',    19.000,     0.000,    15.000,    -7.000,1.05000,  1021,    34.000,   0.00000,   0.22000,   0.00000,   0.00000,1.00000,0,   15.0,    19.000,     5.000,   3,1.0000
 10274,'4 ',    24.000,     0.000,    15.000,    -7.000,1.05000,  1021,    34.000,   0.00000,   0.22000,   0.00000,   0.00000,1.00000,0,   15.0,    24.000,     5.000,   3,1.0000
 10275,'3 ',     2.250,     0.000,     0.000,     0.000,1.05000,     0,     8.350,   0.00920,   0.16210,   0.00000,   0.00000,1.00000,1,    2.3,     7.500,     0.000,   7,1.0000
 10276,'2 ',     0.198,     0.000,     0.000,     0.000,1.05000,     0,     0.850,   0.00730,   0.13500,   0.00000,   0.00000,1.00000,1,    0.2,     0.660,     0.000,   7,1.0000
 10470,'1 ',   300.000,    24.076,   270.000,  -170.000,1.07500,  1062,   500.000,   0.00270,   0.18000,   0.00000,   0.00000,1.00000,0,  250.0,   443.000,   222.000,   1,1.0000
 10471,'1 ',   270.000,     0.000,   159.000,   -75.000,1.07500,  1062,   318.800,   0.00000,   0.22500,   0.00000,   0.00000,1.00000,0,  153.0,   270.000,    40.000,   3,1.0000
 10472,'11',    90.000,     0.000,    60.000,   -30.000,1.07500,  1062,   100.900,   0.00000,   0.12500,   0.00000,   0.00000,1.00000,0,   60.0,    90.000,    13.000,   3,1.0000
 10473,'12',    90.000,     0.000,    60.000,   -30.000,1.07500,  1062,   100.900,   0.00000,   0.12500,   0.00000,   0.00000,1.00000,0,   60.0,    90.000,    13.000,   3,1.0000
 10474,'14',    90.000,     0.000,    60.000,   -30.000,1.07500,  1062,   100.900,   0.00000,   0.12500,   0.00000,   0.00000,1.00000,0,   60.0,    90.000,    13.000,   3,1.0000
 10671,'2 ',     1.440,    -1.940,    -1.940,    -1.940,1.04000,     0,     4.800,   0.02040,   0.33060,   0.00000,   0.00000,1.00000,1,    1.5,     4.800,     0.000,   7,1.0000
 10672,'3 ',     1.500,    -2.000,    -2.000,    -2.000,1.04000,     0,     6.000,   0.02040,   0.33060,   0.00000,   0.00000,1.00000,1,    1.6,     5.000,     0.000,   7,1.0000
 10673,'1 ',     0.360,    -0.480,    -0.480,    -0.480,1.05000,     0,     1.200,   0.02040,   0.33060,   0.00000,   0.00000,1.00000,1,    0.4,     1.200,     0.000,   7,1.0000
 10674,'5 ',     1.380,    -1.770,    -1.770,    -2.300,1.04000,     0,     4.600,   0.02570,   0.73700,   0.00000,   0.00000,1.00000,1,    1.7,     4.600,     0.000,   7,1.0000
 11204,'1 ',     1.000,     0.000,     0.000,     0.000,1.00000,     0,     1.600,   0.00000,   0.20000,   0.01000,   0.06000,1.00000,0,  100.0,     1.000,     0.000,   2,1.0000
 11271,'1 ',     7.560,     0.000,     0.000,     0.000,1.04000,     0,    28.000,   0.00320,   0.12400,   0.00000,   0.00000,1.00000,1,    7.9,    25.200,     0.000,   7,1.0000
 11370,'1 ',     6.600,    -2.883,     5.590,    -5.590,1.05000,  2131,    30.000,   0.00000,   0.57860,   0.00000,   0.00000,1.00000,1,    5.7,    22.000,     0.000,   7,1.0000
 11371,'1 ',    15.300,   -10.116,    20.000,   -20.000,1.05000,  2131,    66.000,   0.00000,   0.57860,   0.00000,   0.00000,1.00000,1,   20.0,    51.000,     0.000,   7,1.0000
 11374,'DW',     1.200,    -0.607,     1.310,    -1.310,1.05000,  2131,     4.000,   0.00900,   0.14800,   0.00000,   0.00000,1.00000,1,    1.2,     4.000,     0.000,   7,1.0000
 11375,'DW',     1.080,    -0.556,     1.180,    -1.180,1.05000,  2131,     4.000,   0.00900,   0.14800,   0.00000,   0.00000,1.00000,1,    1.1,     3.600,     0.000,   7,1.0000
 12371,'1 ',     9.450,    -7.000,     7.000,    -7.000,1.05000,  1231,    32.000,   0.02570,   0.73700,   0.00000,   0.00000,1.00000,1,    7.0,    31.500,     0.000,   7,1.0000
 12372,'2 ',     3.150,     0.000,     0.000,     0.000,1.05000,  1231,    10.000,   0.02570,   0.73700,   0.00000,   0.00000,1.00000,1,    3.5,    10.500,     0.000,   7,1.0000
 12571,'1 ',     5.835,     0.000,     0.000,     0.000,1.05000,  1251,    25.050,   0.00920,   0.16210,   0.00000,   0.00000,1.00000,1,    6.4,    19.450,     0.000,   7,1.0000
 12572,'TW',     0.900,    -0.990,     0.990,    -0.990,1.05000,  1251,     3.340,   0.00920,   0.16210,   0.00000,   0.00000,1.00000,1,    1.0,     3.000,     0.000,   7,1.0000
 12573,'TW',     2.700,    -2.960,     2.960,    -2.960,1.05000,  1251,    10.020,   0.00920,   0.16210,   0.00000,   0.00000,1.00000,1,    3.0,     9.000,     0.000,   7,1.0000
 12871,'DW',     0.690,    -0.660,     0.000,    -0.660,1.05000,  1281,     2.300,   0.02570,   0.73700,   0.00000,   0.00000,1.00000,1,    0.6,     2.300,     0.000,   7,1.0000
 12872,'DW',     2.520,    -2.760,     0.000,    -2.760,1.05000,  1281,     9.200,   0.02570,   0.73700,   0.00000,   0.00000,1.00000,1,    2.6,     8.400,     0.000,   7,1.0000
 12873,'1 ',     5.865,     0.000,     0.000,     0.000,1.05000,  1281,    20.700,   0.02570,   0.73700,   0.00000,   0.00000,1.00000,1,    6.1,    19.550,     0.000,   7,1.0000
 12874,'1 ',     2.550,     0.000,     0.000,     0.000,1.05000,  1281,     8.500,   0.00210,   0.08600,   0.00000,   0.00000,1.00000,1,    2.7,     8.500,     0.000,   7,1.0000
 13170,'1 ',     7.185,     0.000,     0.000,     0.000,1.05000,  1311,    25.300,   0.02570,   0.73700,   0.00000,   0.00000,1.00000,1,    4.6,    23.950,     0.000,   7,1.0000
 13171,'1 ',     3.000,     0.000,     0.000,     0.000,1.05000,  1311,    10.000,   0.00900,   0.14800,   0.00000,   0.00000,1.00000,1,    6.0,    10.000,     0.000,   7,1.0000
 13173,'DW',     2.550,     0.000,     0.000,     0.000,1.05000,  1311,    10.500,   0.00900,   0.14800,   0.00000,   0.00000,1.00000,1,    6.0,     8.500,     0.000,   7,1.0000
 13174,'DW',    10.755,     0.000,     0.000,     0.000,1.05000,  1311,    36.000,   0.02570,   0.73700,   0.00000,   0.00000,1.00000,1,   11.0,    35.850,     0.000,   7,1.0000
 13175,'DW',     3.450,     0.000,     0.000,     0.000,1.05000,  1311,    11.500,   0.02570,   0.73700,   0.00000,   0.00000,1.00000,1,    3.7,    11.500,     0.000,   7,1.0000
 13176,'DW',     5.400,     0.000,     0.000,     0.000,1.05000,  1311,    18.750,   0.00900,   0.16600,   0.00000,   0.00000,1.00000,1,    5.6,    18.000,     0.000,   7,1.0000
 13434,'10',     4.300,     0.000,     0.000,     0.000,1.00000,     0,     4.500,   0.00000,   0.20000,   0.00000,   0.10000,1.00000,0,    1.0,     4.300,     0.000,   1,1.0000
 13471,'1 ',     0.198,     0.000,     0.000,     0.000,1.05000,  1341,     0.660,   0.02040,   0.33060,   0.00000,   0.00000,1.00000,1,    0.2,     0.660,     0.000,   7,1.0000
 13472,'DW',     0.765,     0.000,     0.000,    -0.840,1.05000,  1341,     2.700,   0.03020,   0.86600,   0.00000,   0.00000,1.00000,1,    0.8,     2.550,     0.000,   7,1.0000
 13473,'4 ',     3.000,     0.000,     0.000,     0.000,1.05000,  1341,    10.000,   0.00320,   0.12400,   0.00000,   0.00000,1.00000,1,    4.7,    10.000,     0.000,   7,1.0000
 13474,'5 ',     1.800,     0.000,     0.000,     0.000,1.05000,  1341,     6.250,   0.00900,   0.16600,   0.00000,   0.00000,1.00000,1,    1.9,     6.000,     0.000,   7,1.0000
 13475,'6 ',     2.295,     0.000,     0.000,     0.000,1.05000,  1341,     7.650,   0.00730,   0.13500,   0.00000,   0.00000,1.00000,1,    2.4,     7.650,     0.000,   7,1.0000
 13476,'3 ',     3.570,     0.000,     0.000,     0.000,1.05000,  1341,    11.500,   0.02570,   0.73700,   0.00000,   0.00000,1.00000,1,    3.7,    11.900,     0.000,   7,1.0000
 13477,'2 ',     0.765,     0.000,     0.000,     0.000,1.05000,  1341,     2.700,   0.03020,   0.86600,   0.00000,   0.00000,1.00000,1,    0.8,     2.550,     0.000,   7,1.0000
 13479,'9 ',     1.020,     0.000,     0.000,     0.000,1.00000,     0,     3.400,   0.00730,   0.13500,   0.00000,   0.00000,1.00000,1,    1.1,     3.400,     0.000,   7,1.0000
 14073,'3 ',     1.935,    -2.400,    -2.400,    -2.400,1.04000,     0,     7.611,   0.02040,   0.33060,   0.00000,   0.00000,1.00000,1,    2.0,     6.450,     0.000,   7,1.0000
 14075,'1 ',     1.000,     0.000,     0.000,     0.000,1.00000,     0,    10.000,   0.00000,   0.15500,   0.00000,   0.00000,1.00000,1,    3.0,    10.000,     1.000,   1,1.0000
 14471,'1 ',     1.200,     0.000,     0.000,     0.000,1.04000,     0,     4.000,   0.00320,   0.12400,   0.00000,   0.00000,1.00000,1,    1.4,     4.000,     0.000,   7,1.0000
 14472,'1 ',     0.085,     0.000,     0.000,     0.000,1.00000,     0,     0.850,   0.00210,   0.08600,   0.00000,   0.00000,1.00000,1,    0.1,     0.850,     0.000,   1,1.0000
 14604,'1 ',     4.800,     0.000,     0.000,     0.000,1.05000,     0,     7.000,   0.00000,   0.15000,   0.00000,   0.10000,1.00000,0,    2.0,     4.800,     0.000,   5,1.0000
 14871,'1 ',     0.510,     0.000,     0.000,     0.000,1.05000,     0,     4.600,   0.02570,   0.73700,   0.00000,   0.00000,1.00000,1,    0.5,     1.700,     0.000,   7,1.0000
 14902,'OH',   450.000,     0.000,   279.000,  -178.000,1.07500,  3522,   540.000,   0.00000,   0.32770,   0.00000,   0.00000,1.00000,0,  279.0,   450.000,   225.000,   4,1.0000
 15171,'TW',    13.800,     0.935,    15.120,   -15.120,1.05000,  1511,    46.000,   0.00900,   0.14800,   0.00000,   0.00000,1.00000,1,   15.3,    46.000,     0.000,   7,1.0000
 15172,'DW',     3.000,    -3.290,     3.290,    -3.290,1.00000,     0,    10.000,   0.00900,   0.14800,   0.00000,   0.00000,1.00000,1,    3.1,    10.000,     0.000,   7,1.0000
 15173,'DW',     0.765,    -0.840,     0.840,    -0.840,1.00000,     0,     2.550,   0.00730,   0.13500,   0.00000,   0.00000,1.00000,1,    0.8,     2.550,     0.000,   7,1.0000
 15174,'DW',     6.000,    -6.570,     6.570,    -6.570,1.00000,     0,    20.000,   0.00900,   0.14800,   0.00000,   0.00000,1.00000,1,    6.2,    20.000,     0.000,   7,1.0000
 15571,'DW',     1.785,    -1.960,     1.960,    -1.960,1.00000,     0,     5.950,   0.00730,   0.13500,   0.00000,   0.00000,1.00000,1,    1.9,     5.950,     0.000,   7,1.0000
 15572,'DW',     5.400,    -3.431,     5.920,    -5.920,1.00000,     0,    18.750,   0.00900,   0.16600,   0.00000,   0.00000,1.00000,1,    5.6,    18.000,     0.000,   7,1.0000
 15573,'1 ',     6.000,     0.000,     0.000,     0.000,1.04000,     0,    23.000,   0.02570,   0.73700,   0.00000,   0.00000,1.00000,1,    6.2,    20.000,     0.000,   7,1.0000
 15771,'1 ',     0.594,    -0.300,    -0.300,    -0.300,1.04000,  3581,     1.980,   0.02040,   0.33060,   0.00000,   0.00000,1.00000,1,    1.5,     1.980,     0.000,   7,1.0000
 15772,'1 ',     0.900,    -1.920,    -1.920,    -1.920,1.04000,  3581,     3.000,   0.02040,   0.33060,   0.00000,   0.00000,1.00000,1,    1.5,     3.000,     0.000,   7,1.0000
 16371,'1 ',     1.020,     0.000,     0.000,     0.000,1.00000,     0,     3.400,   0.00730,   0.13500,   0.00000,   0.00000,1.00000,1,    1.1,     3.400,     0.000,   7,1.0000
 16372,'2 ',     1.020,     0.000,     0.000,     0.000,1.00000,     0,     3.400,   0.00730,   0.13500,   0.00000,   0.00000,1.00000,1,    1.1,     3.400,     0.000,   7,1.0000
 16373,'3 ',     2.040,     0.000,     0.000,     0.000,1.00000,     0,     6.800,   0.00730,   0.13500,   0.00000,   0.00000,1.00000,1,    2.1,     6.800,     0.000,   7,1.0000
 16374,'4 ',     2.295,     0.000,     0.000,     0.000,1.00000,     0,     7.650,   0.00210,   0.08600,   0.00000,   0.00000,1.00000,1,    2.4,     7.650,     0.000,   7,1.0000
 16375,'1 ',     1.188,     0.000,     0.000,     0.000,1.00000,     0,     4.250,   0.00210,   0.08600,   0.00000,   0.00000,1.00000,1,    1.3,     3.960,     0.000,   7,1.0000
 16376,'6 ',     1.485,     0.000,     0.000,     0.000,1.00000,     0,     5.100,   0.00210,   0.08600,   0.00000,   0.00000,1.00000,1,    1.5,     4.950,     0.000,   7,1.0000
 16377,'1 ',     2.700,     0.000,     0.000,     0.000,1.00000,     0,     9.200,   0.02570,   0.73700,   0.00000,   0.00000,1.00000,1,    3.0,     9.000,     0.000,   7,1.0000
 16378,'1 ',     0.480,     0.000,     0.000,     0.000,1.00000,     0,     1.700,   0.00210,   0.08600,   0.00000,   0.00000,1.00000,1,    0.5,     1.600,     0.000,   7,1.0000
 16379,'2 ',     0.087,     0.000,     0.000,     0.000,1.00000,     0,     0.323,   0.00320,   0.12400,   0.00000,   0.00000,1.00000,1,    1.3,     0.290,     0.000,   7,1.0000
 16571,'1 ',    11.340,     0.000,     0.000,     0.000,1.05000,  1651,    40.000,   0.02570,   0.73700,   0.00000,   0.00000,1.00000,1,   12.6,    37.800,     0.000,   7,1.0000
 16670,'1 ',     1.350,    -1.351,     0.000,    -3.070,1.00000,     0,     4.500,   0.03020,   0.86600,   0.00000,   0.00000,1.00000,1,    2.9,     4.500,     0.000,   7,1.0000
 16671,'1 ',     1.020,     0.000,     0.000,     0.000,1.04000,     0,     3.400,   0.00730,   0.13500,   0.00000,   0.00000,1.00000,1,    1.1,     3.400,     0.000,   7,1.0000
 16672,'2 ',     0.477,    -0.560,    -0.560,    -0.560,1.04000,     0,     1.700,   0.00730,   0.13500,   0.00000,   0.00000,1.00000,1,    0.5,     1.590,     0.000,   7,1.0000
 16674,'1 ',     5.610,     0.000,     0.000,     0.000,1.04000,     0,    18.700,   0.00730,   0.13500,   0.00000,   0.00000,1.00000,1,    5.8,    18.700,     0.000,   7,1.0000
 16675,'2 ',     2.400,    -2.650,    -2.650,    -2.650,1.04000,     0,     8.000,   0.02690,   0.76900,   0.00000,   0.00000,1.00000,1,    2.7,     8.000,     0.000,   7,1.0000
 16677,'1 ',     1.020,     0.000,     0.000,     0.000,1.00000,     0,     3.400,   0.00210,   0.08600,   0.00000,   0.00000,1.00000,1,    1.1,     3.400,     0.000,   7,1.0000
 16679,'3 ',     1.020,     0.000,     0.000,     0.000,1.00000,     0,     3.400,   0.00210,   0.08600,   0.00000,   0.00000,1.00000,1,    1.1,     3.400,     0.000,   7,1.0000
 16873,'3 ',     8.000,     0.000,     7.000,    -1.000,1.05000,  1681,    11.500,   0.00000,   0.25000,   0.00000,   0.00000,1.00000,0,    7.0,     8.000,     2.000,   3,1.0000
 17073,'3 ',    22.500,     0.000,    23.000,   -25.000,1.05000,  1701,    35.500,   0.00410,   0.18000,   0.00000,   0.00000,1.00000,0,    7.0,    22.500,     5.000,   3,1.0000
 17074,'4 ',    22.500,     0.000,    23.000,   -25.000,1.05000,  1701,    35.500,   0.00410,   0.18000,   0.00000,   0.00000,1.00000,0,    7.0,    22.500,     5.000,   3,1.0000
 17075,'7 ',     0.594,    -0.800,    -0.800,    -0.800,1.00000,     0,     1.980,   0.02040,   0.33060,   0.00000,   0.00000,1.00000,1,    0.6,     1.980,     0.000,   7,1.0000
 17077,'8 ',     0.006,     0.000,     0.000,     0.000,1.00000,     0,     1.200,   0.03020,   0.86600,   0.00000,   0.00000,1.00000,1,    0.3,     0.020,     0.000,   7,1.0000
 17671,'1 ',    10.000,     0.000,     7.000,    -3.000,1.05000,  1701,    12.500,   0.00000,   0.15000,   0.00000,   0.00000,1.00000,0,    7.0,    10.000,     3.000,   3,1.0000
 17672,'2 ',    10.000,     0.000,     7.000,    -3.000,1.05000,  1701,    12.500,   0.00000,   0.13500,   0.00000,   0.00000,1.00000,0,    7.0,    10.000,     3.000,   3,1.0000
 18271,'DW',     1.275,    -1.000,    -1.000,    -1.000,1.00000,     0,     4.250,   0.00730,   0.13500,   0.00000,   0.00000,1.00000,1,    1.2,     4.250,     0.000,   7,1.0000
 18471,'1 ',     1.497,     0.000,     0.000,     0.000,1.04000,     0,     5.200,   0.00550,   0.14300,   0.00000,   0.00000,1.00000,1,    1.5,     4.990,     0.000,   7,1.0000
 18472,'DW',     0.750,    -0.820,     0.000,    -0.820,1.00000,     0,     2.978,   0.00220,   0.41940,   0.00000,   0.00000,1.00000,1,    0.8,     2.500,     0.000,   7,1.0000
 18901,'OH',    58.000,     0.000,    30.000,   -21.320,1.07500,  1891,    68.235,   0.00000,   0.17000,   0.00000,   0.00000,1.00000,0,   30.0,    58.000,    20.000,   1,1.0000
 19081,'1 ',     0.765,     0.000,     0.000,     0.000,1.04000,     0,     2.550,   0.00730,   0.13500,   0.00000,   0.00000,1.00000,1,    0.8,     2.550,     0.000,   7,1.0000
 19082,'2 ',     0.510,     0.000,     0.000,     0.000,1.05000,     0,     1.700,   0.00730,   0.13500,   0.00000,   0.00000,1.00000,1,    0.5,     1.700,     0.000,   7,1.0000
 19083,'1 ',     1.497,     0.000,     0.000,     0.000,1.04000,     0,     6.900,   0.02570,   0.73700,   0.00000,   0.00000,1.00000,1,    1.6,     4.990,     0.000,   7,1.0000
 19084,'2 ',     1.350,    -1.500,    -1.500,    -1.500,1.04000,     0,     4.600,   0.02570,   0.73700,   0.00000,   0.00000,1.00000,1,    1.6,     4.500,     0.000,   7,1.0000
 19085,'1 ',     6.300,    -7.000,    -7.000,    -7.000,1.04000,     0,    23.824,   0.00220,   0.41940,   0.00000,   0.00000,1.00000,1,    6.6,    21.000,     0.000,   7,1.0000
 19101,'OH',    98.400,     0.000,    51.000,   -36.170,1.07500,  1911,   108.240,   0.00000,   0.14400,   0.00279,   0.11997,1.00000,0,   51.0,    98.400,    34.000,   1,1.0000
 19317,'SC',     0.000,     0.000,     6.000,    -6.000,1.05000,  1931,     6.000,   0.00000,9999.00000,   0.00000,   0.00000,1.00000,0,    6.0,     0.000,     0.000,   1,1.0000
 19371,'1 ',     7.125,     0.000,     0.000,     0.000,1.05000,  1931,    29.780,   0.00220,   0.41940,   0.00000,   0.00000,1.00000,1,   11.0,    23.750,     0.000,   7,1.0000
 19372,'2 ',     3.315,     0.000,     0.000,     0.000,1.05000,  1931,    11.050,   0.00730,   0.13500,   0.00000,   0.00000,1.00000,1,   11.6,    11.050,     0.000,   7,1.0000
 19471,'1 ',   100.000,    61.085,    94.000,   -50.000,1.07500,  1941,   153.000,   0.00000,   0.15300,   0.00000,   0.00000,1.00000,1,   75.0,   133.500,    60.000,   4,1.0000
 19472,'5 ',    58.274,     0.000,    38.000,   -23.000,1.07500,  1941,    66.625,   0.00200,   0.14450,   0.00000,   0.00000,1.00000,0,   41.0,    58.274,    19.700,   1,1.0000
 19473,'3 ',    58.274,     0.000,    40.000,   -23.000,1.07500,  1941,    66.625,   0.00200,   0.14450,   0.00000,   0.00000,1.00000,0,   41.0,    58.274,    19.700,   1,1.0000
 19601,'2 ',     0.585,     0.000,     0.000,     0.000,1.00000,     0,     6.500,   0.00000,   0.21900,   0.00000,   0.00000,1.00000,1,  100.0,     5.850,     0.000,   2,1.0000
 19771,'1 ',    12.750,     0.000,     0.000,     0.000,1.05000,  1971,    46.875,   0.00900,   0.16600,   0.00000,   0.00000,1.00000,1,    8.5,    42.500,     0.000,   7,1.0000
 19772,'TW',     2.550,    -2.679,     2.790,    -2.790,1.05000,  1971,     8.500,   0.00730,   0.13500,   0.00000,   0.00000,1.00000,1,    2.8,     8.500,     0.000,   7,1.0000
 19773,'TW',     9.000,    -9.473,     9.860,    -9.860,1.05000,  1971,    38.714,   0.00220,   0.41940,   0.00000,   0.00000,1.00000,1,    9.9,    30.000,     0.000,   7,1.0000
 19971,'1 ',     6.000,    -6.700,     6.700,    -6.700,1.05000,  1991,    20.700,   0.02570,   0.73700,   0.00000,   0.00000,1.00000,1,    6.7,    20.000,     0.000,   7,1.0000
 19972,'2 ',     0.690,     0.000,     0.000,     0.000,1.05000,  1991,     2.300,   0.02570,   0.73700,   0.00000,   0.00000,1.00000,1,    0.7,     2.300,     0.000,   7,1.0000
 19973,'3 ',     0.690,     0.000,     0.000,     0.000,1.05000,  1991,     2.300,   0.02570,   0.73700,   0.00000,   0.00000,1.00000,1,    1.1,     2.300,     0.000,   7,1.0000
 19974,'4 ',     4.830,    -4.000,     4.000,    -4.000,1.05000,  1991,    16.100,   0.02570,   0.73700,   0.00000,   0.00000,1.00000,1,    4.0,    16.100,     0.000,   7,1.0000
 21071,'2 ',     0.150,     0.000,     0.000,     0.000,1.05000,     0,     0.850,   0.00730,   0.13500,   0.00000,   0.00000,1.00000,1,    0.2,     0.500,     0.000,   7,1.0000
 21371,'TW',     8.550,    -4.805,     9.500,    -9.500,1.05000,  2131,    31.730,   0.00920,   0.16210,   0.00000,   0.00000,1.00000,1,    9.5,    28.500,     0.000,   7,1.0000
 21372,'2 ',     5.250,    -2.934,     5.800,    -5.800,1.05000,  2131,    23.380,   0.00920,   0.16210,   0.00000,   0.00000,1.00000,1,    5.8,    17.500,     0.000,   7,1.0000
 21871,'1 ',     0.510,     0.000,     0.000,     0.000,1.01000,     0,     1.700,   0.00730,   0.13500,   0.00000,   0.00000,1.00000,1,    0.5,     1.700,     0.000,   7,1.0000
 21872,'2 ',     0.750,    -0.990,    -0.990,    -1.280,1.01000,     0,     2.700,   0.03020,   0.86600,   0.00000,   0.00000,1.00000,1,    0.9,     2.500,     0.000,   7,1.0000
 21873,'1 ',     1.274,     0.000,     0.000,     0.000,1.00000,     0,     1.600,   0.02040,   0.33060,   0.00000,   0.00000,1.00000,0,  100.0,     1.274,     0.000,   1,1.0000
 22272,'DW',     5.100,    -3.805,     0.000,    -5.590,1.00000,     0,    16.000,   0.00900,   0.14800,   0.00000,   0.00000,1.00000,1,    5.3,    17.000,     0.000,   7,1.0000
 22273,'DW',     1.350,    -0.929,     0.000,    -1.480,1.00000,     0,     4.000,   0.02690,   0.76900,   0.00000,   0.00000,1.00000,1,    1.4,     4.500,     0.000,   7,1.0000
 22274,'2 ',     1.782,    -2.400,    -2.400,    -2.400,1.00000,     0,     5.940,   0.02040,   0.33060,   0.00000,   0.00000,1.00000,1,    1.9,     5.940,     0.000,   7,1.0000
 22275,'4 ',     1.275,     0.000,     0.000,     0.000,1.00000,     0,     4.250,   0.00730,   0.13500,   0.00000,   0.00000,1.00000,1,    1.3,     4.250,     0.000,   7,1.0000
 22276,'3 ',     1.785,     0.000,     0.000,     0.000,1.00000,     0,     6.680,   0.00920,   0.16210,   0.00000,   0.00000,1.00000,1,    1.9,     5.950,     0.000,   7,1.0000
 22277,'DW',     0.915,    -0.990,     0.000,    -0.990,1.00000,     0,     3.340,   0.00920,   0.16210,   0.00000,   0.00000,1.00000,1,    0.9,     3.050,     0.000,   7,1.0000
 22278,'1 ',     1.386,    -1.000,    -1.000,    -1.000,1.00000,     0,     4.620,   0.02040,   0.33060,   0.00000,   0.00000,1.00000,1,    1.4,     4.620,     0.000,   7,1.0000
 22292,'5 ',     6.000,     0.000,     0.000,     0.000,1.00000,     0,     6.000,   0.00000,   0.20000,   0.00000,   0.10000,1.00000,0,    2.0,     6.000,     0.000,   1,1.0000
 22371,'1 ',    17.850,     0.000,     0.000,     0.000,1.05000,  2231,    59.500,   0.00730,   0.13500,   0.00000,   0.00000,1.00000,1,   12.0,    59.500,     0.000,   7,1.0000
 22471,'1 ',     0.765,     0.000,     0.000,     0.000,1.04000,     0,     2.550,   0.00730,   0.13500,   0.00000,   0.00000,1.00000,1,    0.8,     2.550,     0.000,   7,1.0000
 22472,'2 ',     1.275,     0.000,     0.000,     0.000,1.04000,     0,     4.250,   0.00730,   0.13500,   0.00000,   0.00000,1.00000,1,    1.3,     4.250,     0.000,   7,1.0000
 22473,'1 ',     1.275,    -1.500,    -1.500,    -1.500,1.01000,     0,     4.250,   0.00730,   0.13500,   0.00000,   0.00000,1.00000,1,    1.3,     4.250,     0.000,   7,1.0000
 22671,'1 ',    52.100,     0.000,    32.600,   -22.700,1.05000,  2261,    62.000,   0.00000,   0.17900,   0.00000,   0.00000,1.00000,0,   32.6,    52.100,     1.200,   3,1.0000
 22672,'2 ',    52.100,     0.000,    32.600,   -22.700,1.05000,  2261,    62.000,   0.00000,   0.17900,   0.00000,   0.00000,1.00000,0,   32.6,    52.100,     1.200,   3,1.0000
...